* XREF SPICE	Tue May  8 14:44:14 2018	NAND
* icv_netlist Version RHEL64 M-2017.06-1.3706802 2017/06/19

* Top of hierarchy  cell=NAND
.subckt NAND C A B gnd! vdd! OUT
M_MM1 net5 B net9 gnd! n12  l=1e-07 w=1.2e-06 nf=1
M_MM0 OUT A net5 gnd! n12  l=1e-07 w=1.2e-06 nf=1
M_MM2 net9 C gnd! gnd! n12  l=1e-07 w=1.2e-06 nf=1
M_MM3 OUT B vdd! vdd! p12  l=1e-07 w=1.2e-06 nf=1
M_MM4 OUT A vdd! vdd! p12  l=1e-07 w=1.2e-06 nf=1
M_MM5 OUT C vdd! vdd! p12  l=1e-07 w=1.2e-06 nf=1
.ends NAND
